18
-57.962338
Au      1.679999999999950     -0.291000000000025      3.092000000000013
Au     -1.509000000000043      2.328999999999979      1.747000000000014
Au      3.079999999999956      1.801999999999964     -0.443999999999988
Au      1.827999999999946     -0.152000000000015     -1.799000000000007
Au      1.083999999999946      2.486999999999966     -1.832999999999998
Au     -1.873000000000047     -2.035000000000025      1.133999999999986
Au      2.023999999999944     -2.482000000000028     -0.727000000000004
Au      0.554999999999950      2.054999999999978      3.177999999999997
Au     -0.410000000000053     -1.625000000000028     -0.966000000000008
Au     -0.728000000000065      0.649999999999977     -2.180000000000007
Au      0.554999999999950      0.659999999999968      0.506000000000000
Au     -2.146000000000043      0.303999999999974      0.098999999999990
Au      0.984999999999957      3.277999999999963      0.776999999999987
Au     -1.229000000000070      2.752999999999957     -0.729000000000013
Au     -0.984000000000066     -0.150000000000034      2.641999999999996
Au      0.697999999999951     -2.058000000000021      1.460000000000008
Au      2.867999999999938      1.789999999999964      2.074000000000012
Au      2.989999999999952     -0.606000000000023      0.745000000000005
18
-57.928665
Au     -2.170000000000044      0.371999999999986      0.114000000000004
Au      3.073999999999955     -0.257000000000033      3.460000000000008
Au      1.033999999999935     -1.464000000000027      2.431999999999988
Au      0.460999999999956      0.531999999999982      0.454000000000008
Au     -1.273000000000053      2.254999999999967      2.020999999999987
Au     -1.334000000000060     -0.207000000000022      2.671999999999997
Au      1.126999999999953      3.096999999999980      1.031000000000006
Au     -1.196000000000055      2.867999999999967     -0.419000000000011
Au     -1.091000000000065     -2.013000000000034      0.885999999999996
Au      0.932999999999936      1.199999999999960      3.125000000000000
Au      3.096999999999952      1.812999999999960     -0.413999999999987
Au      1.714999999999947     -0.042000000000030     -1.808999999999997
Au      1.079999999999956      2.639999999999958     -1.657000000000011
Au      1.349999999999937     -2.160000000000025     -0.158999999999992
Au     -0.686000000000064     -1.367000000000019     -1.548000000000002
Au     -0.834000000000060      1.027999999999963     -2.204000000000008
Au      3.244999999999948      1.913999999999959      2.151999999999987
Au      3.045999999999935     -0.448000000000036      0.866000000000014
18
-57.878391
Au     -1.815000000000055      3.177999999999969     -0.474999999999994
Au      2.060999999999950     -1.802000000000021     -2.092999999999989
Au      2.852999999999952      0.442999999999984      2.439999999999998
Au      1.053999999999945     -2.650000000000034      0.104999999999990
Au     -0.691000000000059      1.529999999999973     -2.034999999999997
Au     -1.267000000000053     -1.827000000000027      0.836999999999989
Au      0.792999999999950      3.010999999999967     -0.425999999999988
Au     -1.509000000000043     -0.020000000000039      2.600999999999999
Au     -2.091000000000065      0.626999999999981      0.040999999999997
Au      0.587999999999937      0.482999999999976      0.639000000000010
Au      0.594999999999942      1.020999999999958      3.575999999999993
Au     -0.344000000000051     -1.022000000000020     -1.524000000000001
Au      1.822999999999951      0.740999999999985     -1.840000000000003
Au      1.705999999999932      2.828999999999979      2.068999999999988
Au      2.944999999999936     -0.884000000000015      0.170999999999992
Au      0.912999999999954     -1.433000000000021      2.461000000000013
Au     -0.922000000000054      2.478999999999985      1.804000000000002
Au      3.146999999999935      1.789999999999964      0.171999999999997
18
-57.864977
Au      2.930999999999955      0.512999999999977      2.533999999999992
Au      1.141999999999939     -2.454000000000036     -0.042000000000002
Au     -1.188000000000045     -2.019000000000034      1.074999999999989
Au     -1.486000000000047     -0.031000000000034      2.610000000000014
Au      0.512999999999948      0.554999999999978      0.545999999999992
Au      0.600999999999942      0.948999999999984      3.650000000000006
Au      1.808999999999941      2.810999999999979      2.370000000000005
Au      3.066999999999950     -0.882000000000033      0.427999999999997
Au      1.040999999999940     -1.371000000000038      2.399000000000001
Au     -0.859000000000066      2.449999999999960      1.895000000000010
Au      2.892999999999944      1.748999999999967      0.096000000000004
Au      1.617999999999938     -0.366000000000042     -1.739000000000004
Au      1.209999999999951      2.233999999999980     -1.872999999999990
Au     -0.823000000000064     -1.555000000000035     -1.418000000000006
Au     -0.830000000000069      0.756999999999977     -2.332999999999998
Au     -2.135000000000048      0.334999999999980      0.060000000000002
Au      0.939999999999941      3.691999999999979      0.213999999999999
Au     -1.230000000000047      2.689999999999969     -0.703000000000003
18
-57.854522
Au     -0.419000000000068      3.453999999999979     -0.744000000000000
Au      3.267999999999944      1.149999999999977     -0.116999999999990
Au      0.654999999999944      1.912999999999982      3.228000000000009
Au     -0.568000000000069      1.140999999999963     -2.048000000000002
Au     -0.878000000000043      3.325999999999965      1.718999999999994
Au     -1.781000000000063     -0.883000000000038      0.858000000000004
Au      2.582999999999942      0.447999999999979      2.288000000000011
Au      1.753999999999934      3.058999999999969      1.044000000000011
Au     -0.207000000000050     -1.343000000000018     -1.157999999999987
Au      1.835999999999956      0.019999999999982     -2.064999999999998
Au     -2.180000000000064      1.610999999999962      0.015999999999991
Au      2.244999999999948     -2.143000000000029      2.615000000000009
Au     -1.799000000000063      1.081999999999965      2.586999999999989
Au      0.169999999999931     -2.650000000000034      1.110999999999990
Au      0.138999999999953     -0.707000000000022      2.860999999999990
Au      1.745999999999952      2.559999999999974     -1.639999999999986
Au      2.223999999999933     -1.316000000000031      0.192000000000007
Au      0.415999999999940      0.832999999999970      0.507000000000005
18
-57.770978
Au      0.430999999999955      0.360999999999962      0.564999999999998
Au      0.970999999999947     -1.643000000000029      2.240000000000009
Au      0.568999999999932      0.436999999999983      3.878999999999991
Au     -1.507000000000062     -0.541000000000025      2.818000000000012
Au      1.159999999999940      3.007999999999981      0.848000000000013
Au     -1.338000000000051     -2.394000000000034      1.105999999999995
Au     -0.999000000000052      1.987999999999971      2.244000000000000
Au      2.532999999999930      0.857999999999976      2.252000000000010
Au      0.542999999999950     -2.098000000000042     -0.641999999999996
Au     -1.228000000000065      2.404999999999973     -0.381000000000000
Au      3.042999999999950      1.449999999999960     -0.258999999999986
Au      2.826999999999941     -1.108000000000033      0.417000000000002
Au      1.903999999999940     -0.242000000000019     -1.914999999999992
Au     -0.746000000000066      0.176999999999964     -1.925000000000011
Au      1.209999999999951      2.824999999999960      3.379999999999995
Au     -1.996000000000066     -1.938000000000017     -1.286000000000001
Au     -2.288000000000068      0.073999999999984      0.369000000000000
Au      0.991999999999933      2.206999999999965     -1.705999999999989
18
-57.749542
Au     -2.716000000000065      0.184999999999974      0.524000000000001
Au      1.069999999999936      0.162999999999982      2.954000000000008
Au      0.569999999999936      3.085999999999984      0.818000000000012
Au      0.340999999999951     -2.224000000000018     -1.481999999999999
Au     -1.706000000000046      2.334999999999980     -0.382000000000005
Au      2.631999999999948      1.987999999999971     -0.497999999999990
Au      2.694999999999936      2.051999999999964      2.085000000000008
Au      2.884999999999934     -0.297000000000025      0.867999999999995
Au     -1.252000000000066     -0.969000000000023      2.451999999999998
Au      2.715999999999951     -2.328000000000031     -0.645999999999987
Au     -1.320000000000050      1.687999999999960      2.260999999999996
Au      1.818999999999932     -0.144000000000034     -1.812000000000012
Au     -1.212000000000046     -0.041000000000025     -1.778999999999996
Au      0.888999999999953     -2.132000000000033      1.229999999999990
Au      0.682999999999936      2.705999999999960      3.433999999999997
Au     -1.588000000000051     -2.055000000000035      0.111999999999995
Au      0.237999999999943      0.367999999999967      0.383999999999986
Au      0.399999999999949      2.127999999999957     -1.829000000000008
18
-57.721281
Au      2.031999999999954     -0.741000000000042      2.693999999999988
Au     -1.195000000000050      2.180999999999983      2.140999999999991
Au     -1.741000000000071     -1.920000000000016      0.832999999999998
Au      1.377999999999929      1.772999999999968      2.788000000000011
Au      0.535999999999945      0.779999999999973      0.363000000000000
Au     -2.156000000000063      0.512999999999977      0.217999999999989
Au      0.789999999999935      3.612999999999971      1.030000000000001
Au     -1.385000000000048      3.025999999999982     -0.311000000000007
Au     -0.607000000000056     -0.355000000000018      2.538999999999987
Au      0.827999999999946     -2.065000000000026      0.806000000000012
Au      1.898999999999944     -2.004000000000019     -1.564999999999998
Au      3.783999999999935      1.047999999999973      2.203000000000003
Au     -0.865000000000066      1.252999999999957     -2.127000000000010
Au      0.967999999999932      3.012999999999977     -1.527999999999992
Au     -0.529000000000053     -1.184000000000026     -1.365000000000009
Au      1.766999999999939      0.514999999999958     -2.013000000000005
Au      3.048999999999950     -0.512000000000029      0.215000000000003
Au      2.858999999999952      2.180999999999983      0.126000000000005
18
-57.696506
Au     -2.423000000000059      0.629999999999967     -0.424000000000007
Au     -0.704000000000065      1.038999999999959     -2.294999999999987
Au      1.686999999999955      0.074999999999960     -1.948000000000008
Au      3.098999999999933      2.842999999999961      2.191000000000003
Au     -0.488000000000056     -1.303000000000026     -1.000000000000000
Au      0.946999999999946      3.397999999999968      0.955000000000013
Au      0.402999999999935      0.720999999999975      0.495000000000005
Au      1.198999999999955      2.662999999999982     -1.569999999999993
Au      0.817999999999955      2.033999999999963      3.157000000000011
Au     -1.527000000000044      1.701999999999970      1.967000000000013
Au     -1.212000000000046      2.909999999999968     -0.436000000000007
Au      2.977999999999952      1.488999999999976     -0.014999999999986
Au     -1.855000000000047     -0.952000000000027      1.424000000000007
Au      2.692999999999955      0.294999999999959      2.371000000000009
Au      2.161999999999949     -2.203000000000031      2.692000000000007
Au      0.158999999999935     -2.553000000000026      1.217000000000013
Au      0.169999999999931     -0.518000000000029      3.002000000000010
Au      2.230999999999938     -1.294000000000040      0.223000000000013
18
-57.67014
Au      2.024999999999949     -0.062000000000040      2.888000000000005
Au     -1.762000000000057      1.941999999999979      1.992999999999995
Au     -1.303000000000054     -1.528000000000020      0.855999999999995
Au      0.640999999999934      2.010999999999967      3.298000000000002
Au      0.234999999999957      0.797999999999973      0.627999999999986
Au      0.385999999999939      3.635999999999967      1.442000000000007
Au     -0.698000000000064     -0.235000000000042      3.076999999999998
Au      0.779999999999944     -2.246000000000038      2.257000000000005
Au      2.540999999999940      1.880999999999972      1.110000000000014
Au      2.333999999999946     -1.009000000000015      0.449999999999989
Au     -1.415000000000049      3.112999999999971     -0.342000000000013
Au      2.143999999999949     -1.865000000000038     -1.990000000000009
Au      0.692999999999955     -3.016000000000020     -0.201999999999998
Au     -0.450000000000045      1.551999999999964     -2.156000000000006
Au      1.240999999999957      3.116999999999962     -0.907999999999987
Au     -2.262000000000057      0.618999999999971     -0.364000000000004
Au     -0.223000000000070     -0.960000000000036     -1.531000000000006
Au      2.052999999999940      0.715999999999980     -1.536000000000001
18
-57.447646
Au     -0.576000000000050      3.240999999999985     -1.030000000000001
Au      3.133999999999929      1.178999999999974      0.229000000000013
Au      0.557999999999936      1.884999999999962      2.967999999999989
Au     -0.457000000000050      0.840999999999980     -2.135999999999996
Au     -1.110000000000070      3.252999999999957      1.449999999999989
Au      1.452999999999946      3.209999999999980      0.831999999999994
Au      0.016999999999939     -1.539000000000016     -1.049000000000007
Au      2.016999999999939     -0.066000000000031     -1.978000000000009
Au     -2.205000000000069      1.333999999999975     -0.199000000000012
Au     -2.025000000000063      1.097999999999985      2.425999999999988
Au      1.735999999999933      2.437999999999960     -1.677999999999997
Au      0.391999999999939      0.698999999999984      0.496000000000009
Au      2.211999999999932     -0.185000000000031      2.427999999999997
Au     -1.728000000000065     -1.038000000000039      0.895000000000010
Au      4.480999999999938     -0.611000000000018      1.399000000000001
Au     -0.316000000000059     -0.595000000000027      3.212999999999994
Au      0.574999999999932     -2.198000000000036      1.459000000000003
Au      2.595999999999947     -1.532000000000039      0.037000000000006
18
-56.989053
Au      0.475999999999942      1.658999999999963      3.165999999999997
Au      2.352999999999952     -1.997000000000043      2.140999999999991
Au     -1.802000000000049      0.545999999999964      2.781000000000006
Au      0.942999999999955      2.194999999999965      0.592000000000013
Au      2.751999999999953      0.705999999999960      2.054000000000002
Au     -0.045000000000044     -3.050000000000040      1.367999999999995
Au      0.375999999999948     -0.420000000000016      1.408999999999992
Au     -2.135000000000048     -1.563000000000017      1.306000000000012
Au     -1.354000000000070      2.873999999999967      1.713999999999999
Au      3.428999999999945      1.720999999999975     -0.300000000000011
Au      1.624999999999943     -0.007000000000033     -1.078000000000003
Au      1.462999999999937      2.546999999999969     -1.950999999999993
Au      1.781999999999954     -2.549000000000035     -0.318000000000012
Au     -0.664000000000044     -1.541000000000025     -0.883000000000010
Au     -0.547000000000054      0.915999999999968     -2.193999999999988
Au     -1.747000000000071      0.822999999999979      0.110000000000014
Au     -0.937000000000069      3.151999999999958     -0.950999999999993
Au      3.744999999999948     -0.859000000000037      0.271999999999991
